# generated using pymatgen
data_CaSO4
_symmetry_space_group_name_H-M   'P 1'
_cell_length_a   7.05078236
_cell_length_b   7.05078236
_cell_length_c   6.36066160
_cell_angle_alpha   90.00000000
_cell_angle_beta   90.00000000
_cell_angle_gamma   120.00000000
_symmetry_Int_Tables_number   1
_chemical_formula_structural   CaSO4
_chemical_formula_sum   'Ca3 S3 O12'
_cell_volume   273.846718486
_cell_formula_units_Z   3
loop_
 _symmetry_equiv_pos_site_id
 _symmetry_equiv_pos_as_xyz
  1  'x, y, z'
loop_
 _atom_site_type_symbol
 _atom_site_label
 _atom_site_symmetry_multiplicity
 _atom_site_fract_x
 _atom_site_fract_y
 _atom_site_fract_z
 _atom_site_occupancy
  Ca  Ca1  1  0.500000  0.000000  0.500000  1
  Ca  Ca2  1  0.500000  0.500000  0.833333  1
  Ca  Ca3  1  0.000000  0.500000  0.166667  1
  S  S4  1  0.500000  0.000000  0.000000  1
  S  S5  1  0.500000  0.500000  0.333333  1
  S  S6  1  0.000000  0.500000  0.666667  1
  O  O7  1  0.688796  0.552968  0.192315  1
  O  O8  1  0.864172  0.311204  0.525649  1
  O  O9  1  0.447032  0.135828  0.858982  1
  O  O10  1  0.552968  0.864172  0.858982  1
  O  O11  1  0.135828  0.447032  0.807685  1
  O  O12  1  0.311204  0.447032  0.192315  1
  O  O13  1  0.864172  0.552968  0.807685  1
  O  O14  1  0.552968  0.688796  0.474351  1
  O  O15  1  0.311204  0.864172  0.141018  1
  O  O16  1  0.688796  0.135828  0.141018  1
  O  O17  1  0.447032  0.311204  0.474351  1
  O  O18  1  0.135828  0.688796  0.525649  1

