# generated using pymatgen
data_MgAl2O4
_symmetry_space_group_name_H-M   'P 1'
_cell_length_a   8.17073310
_cell_length_b   8.17073310
_cell_length_c   8.17073310
_cell_angle_alpha   90.00000000
_cell_angle_beta   90.00000000
_cell_angle_gamma   90.00000000
_symmetry_Int_Tables_number   1
_chemical_formula_structural   MgAl2O4
_chemical_formula_sum   'Mg8 Al16 O32'
_cell_volume   545.485326278
_cell_formula_units_Z   8
loop_
 _symmetry_equiv_pos_site_id
 _symmetry_equiv_pos_as_xyz
  1  'x, y, z'
loop_
 _atom_site_type_symbol
 _atom_site_label
 _atom_site_symmetry_multiplicity
 _atom_site_fract_x
 _atom_site_fract_y
 _atom_site_fract_z
 _atom_site_occupancy
  Mg  Mg1  1  0.000000  0.000000  0.000000  1
  Mg  Mg2  1  0.750000  0.750000  0.250000  1
  Mg  Mg3  1  0.000000  0.500000  0.500000  1
  Mg  Mg4  1  0.750000  0.250000  0.750000  1
  Mg  Mg5  1  0.500000  0.000000  0.500000  1
  Mg  Mg6  1  0.250000  0.750000  0.750000  1
  Mg  Mg7  1  0.500000  0.500000  0.000000  1
  Mg  Mg8  1  0.250000  0.250000  0.250000  1
  Al  Al9  1  0.875000  0.625000  0.875000  1
  Al  Al10  1  0.875000  0.375000  0.125000  1
  Al  Al11  1  0.125000  0.625000  0.125000  1
  Al  Al12  1  0.125000  0.375000  0.875000  1
  Al  Al13  1  0.875000  0.125000  0.375000  1
  Al  Al14  1  0.875000  0.875000  0.625000  1
  Al  Al15  1  0.125000  0.125000  0.625000  1
  Al  Al16  1  0.125000  0.875000  0.375000  1
  Al  Al17  1  0.375000  0.625000  0.375000  1
  Al  Al18  1  0.375000  0.375000  0.625000  1
  Al  Al19  1  0.625000  0.625000  0.625000  1
  Al  Al20  1  0.625000  0.375000  0.375000  1
  Al  Al21  1  0.375000  0.125000  0.875000  1
  Al  Al22  1  0.375000  0.875000  0.125000  1
  Al  Al23  1  0.625000  0.125000  0.125000  1
  Al  Al24  1  0.625000  0.875000  0.875000  1
  O  O25  1  0.111371  0.611371  0.888629  1
  O  O26  1  0.138629  0.861371  0.138629  1
  O  O27  1  0.861371  0.138629  0.138629  1
  O  O28  1  0.861371  0.861371  0.861371  1
  O  O29  1  0.888629  0.611371  0.111371  1
  O  O30  1  0.888629  0.888629  0.388629  1
  O  O31  1  0.638629  0.138629  0.361371  1
  O  O32  1  0.611371  0.888629  0.111371  1
  O  O33  1  0.111371  0.111371  0.388629  1
  O  O34  1  0.138629  0.361371  0.638629  1
  O  O35  1  0.861371  0.638629  0.638629  1
  O  O36  1  0.861371  0.361371  0.361371  1
  O  O37  1  0.888629  0.111371  0.611371  1
  O  O38  1  0.888629  0.388629  0.888629  1
  O  O39  1  0.638629  0.638629  0.861371  1
  O  O40  1  0.611371  0.388629  0.611371  1
  O  O41  1  0.611371  0.611371  0.388629  1
  O  O42  1  0.638629  0.861371  0.638629  1
  O  O43  1  0.361371  0.138629  0.638629  1
  O  O44  1  0.361371  0.861371  0.361371  1
  O  O45  1  0.388629  0.611371  0.611371  1
  O  O46  1  0.388629  0.888629  0.888629  1
  O  O47  1  0.138629  0.138629  0.861371  1
  O  O48  1  0.111371  0.888629  0.611371  1
  O  O49  1  0.611371  0.111371  0.888629  1
  O  O50  1  0.638629  0.361371  0.138629  1
  O  O51  1  0.361371  0.638629  0.138629  1
  O  O52  1  0.361371  0.361371  0.861371  1
  O  O53  1  0.388629  0.111371  0.111371  1
  O  O54  1  0.388629  0.388629  0.388629  1
  O  O55  1  0.138629  0.638629  0.361371  1
  O  O56  1  0.111371  0.388629  0.111371  1

