# generated using pymatgen
data_NaCN
_symmetry_space_group_name_H-M   'P 1'
_cell_length_a   3.65426575
_cell_length_b   4.89181867
_cell_length_c   5.56937192
_cell_angle_alpha   90.00000000
_cell_angle_beta   90.00000000
_cell_angle_gamma   90.00000000
_symmetry_Int_Tables_number   1
_chemical_formula_structural   NaCN
_chemical_formula_sum   'Na2 C2 N2'
_cell_volume   99.5581226334
_cell_formula_units_Z   2
loop_
 _symmetry_equiv_pos_site_id
 _symmetry_equiv_pos_as_xyz
  1  'x, y, z'
loop_
 _atom_site_type_symbol
 _atom_site_label
 _atom_site_symmetry_multiplicity
 _atom_site_fract_x
 _atom_site_fract_y
 _atom_site_fract_z
 _atom_site_occupancy
  Na  Na1  1  0.000000  0.727418  0.000000  1
  Na  Na2  1  0.500000  0.272582  0.500000  1
  C  C3  1  0.000000  0.865746  0.500000  1
  C  C4  1  0.500000  0.134254  0.000000  1
  N  N5  1  0.500000  0.375405  0.000000  1
  N  N6  1  0.000000  0.624595  0.500000  1

